/*--------------------------------*- C++ -*----------------------------------*\
| ShockLens compressionRamp_2D mesh : flat plate [-1,0] + 15 deg ramp [0,1.5]    |
| ~60k cells, graded to the wall (expansion 30) and clustered at the corner.     |
\*---------------------------------------------------------------------------*/
FoamFile { version 2.0; format ascii; class dictionary; object blockMeshDict; }

scale   1;

// ramp end wall height = 1.5*tan(15 deg) = 0.40192
vertices
(
    (-1.0  0.0      0.0 )   // 0
    ( 0.0  0.0      0.0 )   // 1  corner
    ( 1.5  0.40192  0.0 )   // 2  ramp end (wall)
    ( 1.5  1.0      0.0 )   // 3  ramp end (top)
    ( 0.0  1.0      0.0 )   // 4
    (-1.0  1.0      0.0 )   // 5
    (-1.0  0.0      0.05)   // 6
    ( 0.0  0.0      0.05)   // 7
    ( 1.5  0.40192  0.05)   // 8
    ( 1.5  1.0      0.05)   // 9
    ( 0.0  1.0      0.05)   // 10
    (-1.0  1.0      0.05)   // 11
);

blocks
(
    // flat-plate block: 200 x 120; x clusters toward the corner (0.25),
    // y clusters at the wall (30)
    hex (0 1 4 5 6 7 10 11) (200 120 1) simpleGrading (0.25 30 1)
    // ramp block: 300 x 120; x clusters toward the corner (4), y to the wall (30)
    hex (1 2 3 4 7 8 9 10) (300 120 1) simpleGrading (4 30 1)
);

edges ();

boundary
(
    inlet  { type patch; faces ( (0 5 11 6) ); }
    outlet { type patch; faces ( (2 3 9 8) ); }
    bottom { type wall;  faces ( (0 1 7 6) (1 2 8 7) ); }
    top    { type patch; faces ( (5 4 10 11) (4 3 9 10) ); }
    frontAndBack { type empty; faces (
        (0 1 4 5) (1 2 3 4)
        (6 7 10 11) (7 8 9 10) );
    }
);
