/*--------------------------------*- C++ -*----------------------------------*\
| ShockLens compressionRamp_2D : laminar Mach 2, 15 deg corner, Re_L = 1e4        |
\*---------------------------------------------------------------------------*/
FoamFile { version 2.0; format ascii; class dictionary; object controlDict; }
application     rhoCentralFoam;
startFrom       startTime;
startTime       0;
stopAt          endTime;
endTime         8;
deltaT          1e-5;
writeControl    adjustableRunTime;
writeInterval   0.5;
purgeWrite      0;
writeFormat     ascii;
writePrecision  8;
timeFormat      general;
runTimeModifiable true;
adjustTimeStep  yes;
maxCo           0.3;
maxDeltaT       1e-3;

functions
{
    // skin friction for separation + reattachment (ShockLens: wall_vtk)
    wallShearStress
    {
        type            wallShearStress;
        libs            ("libfieldFunctionObjects.so");
        patches         (bottom);
        writeControl    writeTime;
    }
    // time-resolved wall pressure for RMS + breathing rate (ShockLens: probe_file)
    wallPressureProbes
    {
        type            probes;
        libs            ("libsampling.so");
        writeControl    timeStep;
        writeInterval   1;
        fields          (p);
        probeLocations
        (
            (-0.50 1.0e-4 0.025)
            (-0.20 1.0e-4 0.025)
            (-0.05 1.0e-4 0.025)
            ( 0.10 0.0269 0.025)
            ( 0.30 0.0805 0.025)
            ( 0.60 0.1609 0.025)
        );
    }
}
